LAMMPS (19 Nov 2024)
# 1. CONFIGURACIÓN INICIAL
units real
atom_style full
dimension 3
boundary p p p
processors * * 1
package omp 4
set 4 OpenMP thread(s) per MPI task
using multi-threaded neighbor list subroutines
suffix omp

# 2. INTERACCIONES COMPLETAS
pair_style lj/cut/coul/cut 10.0
pair_modify mix geometric
bond_style harmonic
angle_style harmonic

# 3. LECTURA DE DATOS
atom_style full
read_data calcium.data extra/special/per/atom 1
Reading data file ...
  orthogonal box = (-15 -4 -4) to (15 4 4)
  reading atoms ...
  200 atoms
  scanning bonds ...
  scanning angles ...
  reading velocities ...
  200 velocities
  orthogonal box = (-15 -4 -4) to (15 4 4)
  reading bonds ...
  324 bonds
  reading angles ...
  323 angles
Finding 1-2 1-3 1-4 neighbors ...
    11 = max # of 1-2 neighbors
   110 = max # of 1-3 neighbors
    12 = max # of special neighbors

# 4. TODOS LOS COEFICIENTES
pair_coeff * * 0.0 0.0
pair_coeff 1 1 0.05 3.5539   # ε reducido a ~30% del original
pair_coeff 3 3 0.05 3.5539
pair_coeff 1 2 0.0 0.0   # Ob-Si
pair_coeff 1 3 0.116475 3.5539
pair_coeff 1 4 0.0 0.0   # Ob-H
pair_coeff 2 2 0.0 0.0
pair_coeff 2 3 0.116475 3.5539  # Si-Ow
pair_coeff 2 4 0.0 0.0   # Si-H
pair_coeff 3 4 0.0 0.0   # Ow-H
pair_coeff 4 4 0.0 0.0

bond_coeff 1 100.0 1.0       # k reducida a 100
angle_coeff 1 15.0 109.47    # k reducida a 15

# 5. MINIMIZACIÓN ROBUSTA
min_style cg
minimize 1.0e-4 1.0e-8 10000 20000
Generated 0 of 6 mixed pair_coeff terms from geometric mixing rule
Last active /omp style is angle_style harmonic/omp
Step          Temp          E_pair         E_mol          TotEng         Press
0   0              3.2961686e+12  10049.499      3.2961686e+12  4.7086046e+14
Loop time of 0.0268851 on 4 procs for 35 steps with 200 atoms

Minimization stats:
  Stopping criterion = energy tolerance
  Energy initial, next-to-last, final =
  Force two-norm initial, final = 1.9419032e+14 421089.77
  Force max component initial, final = 1.117936e+14 291366.07
  Final line search alpha, max atom move = 2.1653592e-10 6.309122e-05
  Iterations, force evaluations = 35 62

reset_timestep 0

# 6. DINÁMICA MOLECULAR
timestep 0.1  # Más estable para sistemas pequeños
neighbor 2.0 bin
neigh_modify every 1 delay 0 check yes

# 7. EQUILIBRACIÓN
fix 1 all langevin 300 300 50 12345 zero yes
unfix 1
fix 2 all nvt temp 300 300 50.0
thermo 50
run 4800  # Aumentar de 2000 a 5000 pasos
Generated 0 of 6 mixed pair_coeff terms from geometric mixing rule
Last active /omp style is angle_style harmonic/omp
Step          Temp          E_pair         E_mol          TotEng         Press
0   0              1098047.4      7350.4888      1105397.9      17587057
Averages over the last 49 of 97 rows, steps 2400 to 4800:
Temp E_pair E_mol TotEng Press
68309.1 998158 27523 1.0662e+06 1.44007e+07
Loop time of 1.97877 on 4 procs for 4800 steps with 200 atoms

unfix 2

# 8. PRODUCCIÓN
fix 3 all nvt temp 300 300 50.0
run 5000
Generated 0 of 6 mixed pair_coeff terms from geometric mixing rule
Last active /omp style is angle_style harmonic/omp
Step          Temp          E_pair         E_mol          TotEng         Press
4800   53406.817      993647.06      48575.535      1073902.5      13459205
Averages over the last 50 of 100 rows, steps 7300 to 9750:
Temp E_pair E_mol TotEng Press
79144 982979 33934.5 1.06386e+06 1.40992e+07
ERROR: Lost atoms: original 200 current 194 (src/thermo.cpp:494)
Last command: run 5000
