LAMMPS (19 Nov 2024)
# 1. CONFIGURACIÓN INICIAL
units real
atom_style full
dimension 3
boundary p p p
processors * * 1
package omp 4
set 4 OpenMP thread(s) per MPI task
using multi-threaded neighbor list subroutines
suffix omp

# 2. INTERACCIONES COMPLETAS
pair_style lj/cut/coul/cut 10.0
pair_modify mix geometric
bond_style harmonic
angle_style harmonic

# 3. LECTURA DE DATOS
read_data output.data extra/special/per/atom 1
Reading data file ...
  orthogonal box = (-20 -5 -5) to (20 5 5)
  reading atoms ...
  10 atoms
  scanning bonds ...
  scanning angles ...
  reading velocities ...
  10 velocities
  orthogonal box = (-20 -5 -5) to (20 5 5)
  reading bonds ...
  2 bonds
  reading angles ...
  1 angles
Finding 1-2 1-3 1-4 neighbors ...
     2 = max # of 1-2 neighbors
     1 = max # of 1-3 neighbors
     1 = max # of 1-4 neighbors
     3 = max # of special neighbors

# 4. TODOS LOS COEFICIENTES
pair_coeff * * 0.0 0.0
pair_coeff 1 1 0.07765 3.5539   # 50% del valor original
pair_coeff 3 3 0.07765 3.5539
pair_coeff 1 2 0.0 0.0
pair_coeff 1 3 0.116475 3.5539
pair_coeff 1 4 0.0 0.0
pair_coeff 2 2 0.0 0.0
pair_coeff 2 3 0.116475 3.5539
pair_coeff 2 4 0.0 0.0
pair_coeff 3 4 0.0 0.0
pair_coeff 4 4 0.0 0.0

bond_coeff 1 150.0 1.0    # Reducir constante de bond
angle_coeff 1 25.0 109.47 # Reducir constante de angle

# 5. MINIMIZACIÓN ROBUSTA
min_style cg
minimize 1.0e-4 1.0e-6 5000 10000
Generated 0 of 6 mixed pair_coeff terms from geometric mixing rule
Last active /omp style is angle_style harmonic/omp
Step          Temp          E_pair         E_mol          TotEng         Press
0   0              18805.886      0.48259879     18806.369      1447052.9
Loop time of 0.000178081 on 4 procs for 17 steps with 10 atoms

Minimization stats:
  Stopping criterion = energy tolerance
  Energy initial, next-to-last, final =
  Force two-norm initial, final = 77723.129 34.133593
  Force max component initial, final = 33765.687 28.405636
  Final line search alpha, max atom move = 5.3874319e-05 0.0015303343
  Iterations, force evaluations = 17 26

reset_timestep 0

# 6. DINÁMICA MOLECULAR
timestep 0.2  # Paso temporal intermedio
neighbor 2.0 bin
neigh_modify every 1 delay 0 check yes

# 7. EQUILIBRACIÓN
fix 1 all nve
fix 2 all langevin 300 300 10 12345 zero yes
thermo 50
run 2000
Generated 0 of 6 mixed pair_coeff terms from geometric mixing rule
Last active /omp style is angle_style harmonic/omp
Step          Temp          E_pair         E_mol          TotEng         Press
0   0             -1676.9822      0.11938331    -1676.8628     -2713.1169
Averages over the last 21 of 41 rows, steps 1000 to 2000:
Temp E_pair E_mol TotEng Press
399.563 -1538.81 2.88481 -1525.21 -1789.23
Loop time of 0.0140882 on 4 procs for 2000 steps with 10 atoms

unfix 2

# 8. PRODUCCIÓN
fix 3 all nvt temp 300 300 50.0
run 5000
Generated 0 of 6 mixed pair_coeff terms from geometric mixing rule
Last active /omp style is angle_style harmonic/omp
Step          Temp          E_pair         E_mol          TotEng         Press
2000   439.24906     -1390.4377      1.1829944     -1377.4709     -691.0626
Averages over the last 51 of 101 rows, steps 4500 to 7000:
Temp E_pair E_mol TotEng Press
518.539 -1916.48 10.9023 -1891.67 -4370.41
Loop time of 0.0546795 on 4 procs for 5000 steps with 10 atoms
