LAMMPS (19 Nov 2024)
units real
atom_style full
region box block -5 5 -5 5 -5 5
create_box 2 box bond/types 1 angle/types 1             extra/bond/per/atom 2 extra/angle/per/atom 1 extra/special/per/atom 2
Created orthogonal box = (-5 -5 -5) to (5 5 5)

mass 1 15.9994
mass 2 1.008

pair_style lj/cut/tip4p/cut 1 2 1 1 0.15 8.0
pair_coeff 1 1 0.1550 3.1536
pair_coeff 2 2 0.0    1.0

bond_style zero
bond_coeff 1 0.9574

angle_style zero
angle_coeff 1 104.52

molecule water tip3p.mol  # this uses the TIP3P geometry
Read molecule template water:
# Water molecule. TIP3P geometry
  1 molecules
  0 fragments
  3 atoms with max type 2
  2 bonds with max type 1
  1 angles with max type 1
  0 dihedrals with max type 0
  0 impropers with max type 0
create_atoms 0 random 33 34564 NULL mol water 25367 overlap 1.33
Created 99 atoms
# must change charges for TIP4P
set type 1 charge -1.040
Setting atom values ...
  33 settings made for charge
set type 2 charge  0.520
Setting atom values ...
  66 settings made for charge

fix rigid all shake 0.001 10 10000 b 1 a 1
Finding SHAKE clusters ...
       0 = # of size 2 clusters
       0 = # of size 3 clusters
       0 = # of size 4 clusters
      33 = # of frozen angles
  find clusters CPU = 0.000 seconds
minimize 0.0 0.0 1000 10000
Generated 1 of 1 mixed pair_coeff terms from geometric mixing rule
  Substituting constraints with harmonic restraint forces using kbond=1987 (src/RIGID/fix_shake.cpp:386)
Step          Temp          E_pair         E_mol          TotEng         Press
0   0              17823.451      0              17823.463      5119936.8
Bond:   1   0.9602    0.128566          66
Angle:  1   104.017   16.3285           33
Loop time of 0.0250477 on 16 procs for 11 steps with 99 atoms

Minimization stats:
  Stopping criterion = linesearch alpha is zero
  Energy initial, next-to-last, final =
  Force two-norm initial, final = 171392.93 877.78498
  Force max component initial, final = 93297.483 262.68765
  Final line search alpha, max atom move = 1.1079253e-14 2.910383e-12
  Iterations, force evaluations = 11 82

reset_timestep 0
timestep 1.0
velocity all create 300.0 5463576
fix integrate all nvt temp 300 300 100.0

thermo_style custom step temp press etotal pe

thermo 1000
run 20000
Generated 1 of 1 mixed pair_coeff terms from geometric mixing rule
SHAKE stats (type/ave/delta/count) on step 0
Bond:   1   0.9602    0.128566          66
Angle:  1   104.017   16.3285           33
Step          Temp          Press          TotEng         PotEng
0   300            121475.86     -581.07719     -639.20298
Averages over the last 5 of 10 rows, steps 5000 to 9000:
Temp Press TotEng PotEng
291.641 -18387.8 -713.26 -769.766
Bond:   1   0.957401  4.18379e-06       66
Angle:  1   104.52    0.00026536        33
SHAKE stats (type/ave/delta/count) on step 20000
Bond:   1   0.957401  2.59767e-06       66
Angle:  1   104.52    0.000203193       33
Loop time of 5.74821 on 16 procs for 20000 steps with 99 atoms

write_data tip4p-implicit.data nocoeff
System init for write_data ...
Generated 1 of 1 mixed pair_coeff terms from geometric mixing rule
