# Tobermorita 11 Å - Estructura simplificada para simulaciones
# Basada en Guan et al., Cem. Concr. Res. 2012; Dmitriev et al., PCCP 2012
# Celda unitaria idealizada: espacio grupo C2/m

data_tobermorite
_symmetry_space_group_name_H-M 'C 1 2/m 1'
_symmetry_Int_Tables_number 12
_symmetry_cell_setting monoclinic

_cell_length_a  6.740
_cell_length_b  7.390
_cell_length_c 11.300
_cell_angle_alpha 90.00
_cell_angle_beta 99.70
_cell_angle_gamma 90.00

loop_
_atom_site_label
_atom_site_type_symbol
_atom_site_fract_x
_atom_site_fract_y
_atom_site_fract_z
_atom_site_occupancy
_atom_site_U_iso_or_equiv

# Átomos de Calcio (Ca)
Ca1  Ca  0.2000  0.2500  0.1000  1.0  0.01
Ca2  Ca  0.7000  0.7500  0.4000  1.0  0.01
Ca3  Ca  0.3000  0.7500  0.6000  1.0  0.01

# Átomos de Silicio (Si) - en cadenas de silicato
Si1  Si  0.1000  0.1000  0.3000  1.0  0.01
Si2  Si  0.6000  0.6000  0.5000  1.0  0.01
Si3  Si  0.9000  0.9000  0.7000  1.0  0.01

# Átomos de Oxígeno (O) - puentes Si-O-Si y Si-O⁻
O1   O   0.0000  0.3000  0.3500  1.0  0.01
O2   O   0.2000  0.0000  0.2500  1.0  0.01
O3   O   0.5000  0.7000  0.4500  1.0  0.01
O4   O   0.8000  0.5000  0.5500  1.0  0.01
O5   O   0.4000  0.8000  0.6500  1.0  0.01
O6   O   0.7000  0.4000  0.7500  1.0  0.01
O7   O   0.9000  0.2000  0.8500  1.0  0.01
O8   O   0.1000  0.9000  0.0500  1.0  0.01
O9   O   0.6000  0.1000  0.1500  1.0  0.01

# Oxígenos de grupos OH
OH1  O   0.1500  0.4000  0.1800  1.0  0.01
OH2  O   0.6500  0.9000  0.4800  1.0  0.01
OH3  O   0.2500  0.9000  0.6800  1.0  0.01

# Hidrógenos de los grupos OH
H1   H   0.1200  0.5200  0.2200  1.0  0.01
H2   H   0.6800  0.7800  0.4600  1.0  0.01
H3   H   0.2800  0.7800  0.7200  1.0  0.01

# Moléculas de agua intercapadas
HOH1 O   0.5000  0.2500  0.0500  1.0  0.01
HW1  H   0.6200  0.2800  0.0200  1.0  0.01
HW2  H   0.4800  0.3500  0.1500  1.0  0.01

HOH2 O   0.0000  0.7500  0.9500  1.0  0.01
HW3  H   0.1000  0.6500  0.9200  1.0  0.01
HW4  H   0.0200  0.8500  0.8800  1.0  0.01

HOH3 O   0.8000  0.2500  0.8500  1.0  0.01
HW5  H   0.8500  0.3500  0.9200  1.0  0.01
HW6  H   0.7200  0.2200  0.8200  1.0  0.01

# Fin del archivo